! ----  This file was generated with Archsim v.4.3.2.1

Version,8.4;

ProgramControl,
4; !- Number of Threads Allowed

RunPeriod,
  Archsim,                 !- Name
  1,                       !- Begin Month
  1,                       !- Begin Day of Month
  12,                      !- End Month
  31,                      !- End Day of Month
  UseWeatherFile,          !- Day of Week for Start Day
  No,                      !- Use Weather File Holidays and Special Days
  No,                      !- Use Weather File Daylight Saving Period
  Yes,                     !- Apply Weekend Holiday Rule
  Yes,                     !- Use Weather File Rain Indicators
  Yes,                     !- Use Weather File Snow Indicators
  1;                       !- Number of Times Runperiod to be Repeated

RunPeriodControl:DaylightSavingTime,
  Last Sunday in March,    !- Start Date
  Last Sunday in October;  !- End Date

Site:GroundTemperature:BuildingSurface,14,14,14,14,14,14,14,14,14,14,14,14;

Site:GroundReflectance,0.2,0.2,0.2,0.2,0.2,0.2,0.2,0.2,0.2,0.2,0.2,0.2;

Site:GroundReflectance:SnowModifier,
  1.0,                     !- Ground Reflected Solar Modifier
  1.0;                     !- Daylighting Ground Reflected Solar Modifier

SimulationControl,
  No,                      !- Do Zone Sizing Calculation
  No,                      !- Do System Sizing Calculation
  No,                      !- Do Plant Sizing Calculation
  No,                      !- Run Simulation for Sizing Periods
  Yes;                     !- Run Simulation for Weather File Run Periods



ConvergenceLimits,
  1,                       !- Minimum System Timestep {minutes}
  50;                      !- Maximum HVAC Iterations

ScheduleTypeLimits,
  Any Number;              !- Name

ScheduleTypeLimits,
  Fraction,                !- Name
  0.0,                     !- Lower Limit Value
  1.0,                     !- Upper Limit Value
  CONTINUOUS;              !- Numeric Type

ScheduleTypeLimits,
  Temperature,             !- Name
  -60,                     !- Lower Limit Value
  200,                     !- Upper Limit Value
  CONTINUOUS;              !- Numeric Type

ScheduleTypeLimits,
  Control Type,            !- Name
  0,                       !- Lower Limit Value
  4,                       !- Upper Limit Value
  DISCRETE;                !- Numeric Type

ScheduleTypeLimits,
  On/Off,                  !- Name
  0,                       !- Lower Limit Value
  1,                       !- Upper Limit Value
  DISCRETE;                !- Numeric Type

Schedule:Constant,
  On,                      !- Name
  On/Off,                  !- Schedule Type Limits Name
  1;                       !- Value

Schedule:Constant,
  Off,                     !- Name
  On/Off,                  !- Schedule Type Limits Name
  0;                       !- Value


GlobalGeometryRules,
  LowerLeftCorner,         !- Starting Vertex Position
  CounterClockWise,        !- Vertex Entry Direction
  World;                !- Coordinate System

! -------------------------ERL SENSORS--------------------------

EnergyManagementSystem:Sensor,                                             
  OutdoorTemp, !- Name                                         
  Environment, !- Output:Variable Index Key Name               
  Site Outdoor Air Drybulb Temperature; !- Output:Variable Name
EnergyManagementSystem:Sensor,                                             
  OutdoorRelHumid, !- Name                                         
  Environment, !- Output:Variable Index Key Name               
  Site Outdoor Air Relative Humidity; !- Output:Variable Name


Output:EnergyManagementSystem,
  Verbose,                 !- Actuator Availability Dictionary Reporting
  Verbose,                 !- Internal Variable Availability Dictionary Reporting
  Verbose;                 !- EMS Runtime Language Debug Output Level



ShadowCalculation,
  AverageOverDaysInFrequency,  !- Calculation Method
  20,                      !- Calculation Frequency
  15000,                   !- Maximum Figures in Shadow Overlap Calculations
  SutherlandHodgman,       !- Polygon Clipping Algorithm
  SimpleSkyDiffuseModeling;!- Sky Diffuse Modeling Algorithm

Building,
  Building,                !- Name
  0,                       !- North Axis [deg]
  Suburbs,                 !- Terrain
  .04,                     !- Loads Convergence Tolerance Value
  .4,                      !- Temperature Convergence Tolerance Value {deltaC}
  FullExterior,            !- Solar Distribution   should be  FullInteriorAndExterior
  25,                      !- Maximum Number of Warmup Days
  ;                        !- Minimum Number of Warmup Days

HeatBalanceAlgorithm,
    ConductionTransferFunction,  !- Algorithm
    200,                     !- Surface Temperature Upper Limit {C}
    0.1,                     !- Minimum Surface Convection Heat Transfer Coefficient Value {W/m2-K}
    1000;                    !- Maximum Surface Convection Heat Transfer Coefficient Value {W/m2-K}

Timestep,4;

SurfaceConvectionAlgorithm:Inside,TARP;

SurfaceConvectionAlgorithm:Outside,DOE-2;

AirflowNetwork:SimulationControl,
    NaturalVentilation,      !- Name
    MultizoneWithoutDistribution,  !- AirflowNetwork Control
    SurfaceAverageCalculation,  !- Wind Pressure Coefficient GasType
    ,                        !- AirflowNetwork Wind Pressure Coefficient Array Name
    OpeningHeight,           !- Height Selection for Local Wind Pressure Calculation
    LOWRISE,                 !- Building GasType
    10000,                     !- Maximum Number of Iterations {dimensionless}
    ZeroNodePressures,       !- Initialization GasType
    1.0E-03,                 !- Relative Airflow Convergence Tolerance {dimensionless}
    1.0E-04,                 !- Absolute Airflow Convergence Tolerance {kg/s}
    -0.5,                    !- Convergence Acceleration Limit {dimensionless}
    0.0,                     !- Azimuth Angle of Long Axis of Building {deg}
    1.0;                     !- Ratio of Building Width Along Short Axis to Width Along Long Axis

AirflowNetwork:MultiZone:ReferenceCrackConditions ,
ReferenceCrackConditions , !- Name of Reference Crack Conditions
20.0, !- Reference Temperature for Crack Data {C}
101325, !- Reference Barometric Pressure for Crack Data {Pa}
0.0; !- Reference Humidity Ratio for Crack Data {kgWater/kgDryAir}

! ------------ CONSTRUCTIONS 

! defaultConstruction Type: Facade
Construction, defaultConstruction,
defaultMat_0.25_defaultConstruction;

Construction, defaultConstruction_FLIPPED,
defaultMat_0.25_defaultConstruction;



! Materials
!- Material: defaultMat Type: Concrete
Material, defaultMat_0.25_defaultConstruction ,                !- Material name 
 Rough,                                         !- Roughness
 0.25,                                         !- Thickness {m}
 2.3,                                          !- Conductivity {w/m-K}
 2400,                                          !- Density {kg/m3}
 840,                                          !- Specific Heat {J/kg-K}
 0.9,                                           !- Thermal Emittance
 0.7,                                           !- Solar Absorptance
 0.7;                                           !- Visible Absorptance



! UVal_0.2_Mass Type: Facade
Construction, UVal_0.2_Mass,
Mineral Wool_0.194_UVal_0.2_Mass,
General Concrete_0.2_UVal_0.2_Mass;

Construction, UVal_0.2_Mass_FLIPPED,
General Concrete_0.2_UVal_0.2_Mass,
Mineral Wool_0.194_UVal_0.2_Mass;



! Materials
!- Material: Mineral Wool Type: Insulation
Material, Mineral Wool_0.194_UVal_0.2_Mass ,                !- Material name 
 Rough,                                         !- Roughness
 0.194,                                         !- Thickness {m}
 0.041,                                          !- Conductivity {w/m-K}
 155,                                          !- Density {kg/m3}
 1130,                                          !- Specific Heat {J/kg-K}
 0.9,                                           !- Thermal Emittance
 0.7,                                           !- Solar Absorptance
 0.7;                                           !- Visible Absorptance

!- Material: General Concrete Type: Concrete
Material, General Concrete_0.2_UVal_0.2_Mass ,                !- Material name 
 Rough,                                         !- Roughness
 0.2,                                         !- Thickness {m}
 2,                                          !- Conductivity {w/m-K}
 2400,                                          !- Density {kg/m3}
 950,                                          !- Specific Heat {J/kg-K}
 0.9,                                           !- Thermal Emittance
 0.7,                                           !- Solar Absorptance
 0.7;                                           !- Visible Absorptance



! Slab_Mass Type: Facade
Construction, Slab_Mass,
General Concrete_0.2_Slab_Mass;

Construction, Slab_Mass_FLIPPED,
General Concrete_0.2_Slab_Mass;



! Materials
!- Material: General Concrete Type: Concrete
Material, General Concrete_0.2_Slab_Mass ,                !- Material name 
 Rough,                                         !- Roughness
 0.2,                                         !- Thickness {m}
 2,                                          !- Conductivity {w/m-K}
 2400,                                          !- Density {kg/m3}
 950,                                          !- Specific Heat {J/kg-K}
 0.9,                                           !- Thermal Emittance
 0.7,                                           !- Solar Absorptance
 0.7;                                           !- Visible Absorptance




! ------------ GLAZING  


Construction,
    SinglePaneClr,              !- Name
    SinglePaneClrWindow;

WindowMaterial:SimpleGlazingSystem,
SinglePaneClrWindow , !-Name
5.894 , !-U - Factor
0.905 , !-Solar Heat Gain Coefficient
0.913; !-Visible Transmittance


! ------------ SCHEDULES  

Schedule:Year,occResidential,
Fraction,
occResidential0,1,1,12,31;

Schedule:Week:Daily, occResidential0,
  occResidential, !- Sunday Schedule:Day Name
  occResidential, !- Monday Schedule:Day Name
  occResidential, !- Tuesday Schedule:Day Name
  occResidential, !- Wednesday Schedule:Day Name
  occResidential, !- Thursday Schedule:Day Name
  occResidential, !- Friday Schedule:Day Name
  occResidential, !- Saturday Schedule:Day Name
  occResidential, !- Holiday Schedule:Day Name
  occResidential, !- SummerDesignDay Schedule:Day Name
  occResidential, !- WinterDesignDay Schedule:Day Name
  occResidential, !- CustomDay1 Schedule:Day Name
  occResidential; !- CustomDay2 Schedule:Day Name

Schedule:Year,AllOn,
Fraction,
AllOn0,1,1,12,31;

Schedule:Week:Daily, AllOn0,
  AllOn, !- Sunday Schedule:Day Name
  AllOn, !- Monday Schedule:Day Name
  AllOn, !- Tuesday Schedule:Day Name
  AllOn, !- Wednesday Schedule:Day Name
  AllOn, !- Thursday Schedule:Day Name
  AllOn, !- Friday Schedule:Day Name
  AllOn, !- Saturday Schedule:Day Name
  AllOn, !- Holiday Schedule:Day Name
  AllOn, !- SummerDesignDay Schedule:Day Name
  AllOn, !- WinterDesignDay Schedule:Day Name
  AllOn, !- CustomDay1 Schedule:Day Name
  AllOn; !- CustomDay2 Schedule:Day Name

Schedule:Year,lightsResidential,
Fraction,
lightsResidential0,1,1,12,31;

Schedule:Week:Daily, lightsResidential0,
  lightsResidential, !- Sunday Schedule:Day Name
  lightsResidential, !- Monday Schedule:Day Name
  lightsResidential, !- Tuesday Schedule:Day Name
  lightsResidential, !- Wednesday Schedule:Day Name
  lightsResidential, !- Thursday Schedule:Day Name
  lightsResidential, !- Friday Schedule:Day Name
  lightsResidential, !- Saturday Schedule:Day Name
  lightsResidential, !- Holiday Schedule:Day Name
  lightsResidential, !- SummerDesignDay Schedule:Day Name
  lightsResidential, !- WinterDesignDay Schedule:Day Name
  lightsResidential, !- CustomDay1 Schedule:Day Name
  lightsResidential; !- CustomDay2 Schedule:Day Name

Schedule:Year,equipResidential,
Fraction,
equipResidential0,1,1,12,31;

Schedule:Week:Daily, equipResidential0,
  equipResidential, !- Sunday Schedule:Day Name
  equipResidential, !- Monday Schedule:Day Name
  equipResidential, !- Tuesday Schedule:Day Name
  equipResidential, !- Wednesday Schedule:Day Name
  equipResidential, !- Thursday Schedule:Day Name
  equipResidential, !- Friday Schedule:Day Name
  equipResidential, !- Saturday Schedule:Day Name
  equipResidential, !- Holiday Schedule:Day Name
  equipResidential, !- SummerDesignDay Schedule:Day Name
  equipResidential, !- WinterDesignDay Schedule:Day Name
  equipResidential, !- CustomDay1 Schedule:Day Name
  equipResidential; !- CustomDay2 Schedule:Day Name

Schedule:Day:Hourly, occResidential, Fraction,1,1,1,1,1,1,0.8,0.6,0.4,0.4,0.4,0.6,0.8,0.6,0.4,0.4,0.6,0.8,0.8,0.8,0.8,1,1,1;

Schedule:Day:Hourly, AllOn, Fraction,1,1,1,1,1,1,1,1,1,1,1,1,1,1,1,1,1,1,1,1,1,1,1,1;

Schedule:Day:Hourly, lightsResidential, Fraction,0,0,0,0,0,0,1,1,1,1,1,1,1,1,1,1,1,1,1,1,1,0,0,0;

Schedule:Day:Hourly, equipResidential, Fraction,0.1,0.1,0.1,0.1,0.1,0.1,0.5,1,0.5,0.5,0.5,1,1,0.5,0.5,0.5,1,1,1,1,0.5,0.5,0.5,0.1;




!------------------------------------------------ ZONE ----------------------------------------------------

Zone,
  construction0,            !- Name
  0,                       !- Rotation [deg]
  0,                       !- X origin [m]
  0,                       !- Y origin [m]
  0,                       !- Z origin [m]
  1,                       !- Type
  1.0,                       !- Multiplier
  ,                        !- Ceiling Height [m]
  2560.4,                   !- Volume [m3]
  512.08,                   !- Area [m2]
  TARP,                    !- Zone Inside Convection Algorithm
  DOE-2;                   !- Zone Outside Convection Algorithm

! ------------------------ PEOPLE
People,
    People construction0,                 !- Name
    construction0,            !- Zone or ZoneList Name
    occResidential,        !- Number of People Schedule Name
    People/Area,                  !- Number of People Calculation Method
    ,                       !- Number of People
    0.025,                        !- People per Zone Floor Area {person/m2}
    ,                        !- Zone Floor Area per Person {m2/person}
    0.3,                     !- Fraction Radiant
    AUTOCALCULATE,           !- Sensible Heat Fraction
    construction0PeopleActivity,                    !- Activity Level Schedule Name
    0.0000000382,            !- Carbon Dioxide Generation Rate {m3/s-W}
    No,                      !- Enable ASHRAE 55 Comfort Warnings
    ZoneAveraged,            !- Mean Radiant Temperature Calculation Type
    ,                        !- Surface Name/Angle Factor List Name
    construction0WorkEfficiency,  !- Work Efficiency Schedule Name
    DynamicClothingModelASHRAE55,  !- Clothing Insulation Calculation Method
    ,                        !- Clothing Insulation Calculation Method Schedule Name
    ,                        !- Clothing Insulation Schedule Name
    construction0AirVelocity,!- Air Velocity Schedule Name
    AdaptiveASH55;           !- Thermal Comfort Model 1 Type

Schedule:Constant, construction0PeopleActivity, Any Number, 125.28; ! - Watts per person, uses Metabolic Rate input (1 met = 58 W/m2) and assumes adult body surface area of 1.8 m2
Schedule:Constant, construction0AirVelocity, Any Number, 0.2;
Schedule:Constant, construction0WorkEfficiency, Any Number, 0;


! ------------------------ EQUIPMENT
ElectricEquipment,
  construction0 Equipment 1,!- Name
  construction0,            !- Zone or ZoneList Name
  equipResidential,                    !- Schedule Name
  Watts/Area,          !- Design Level Calculation Method
  ,                !- Design Level [W]
  2,                        !- Watts per Zone Floor Area [W/m2]
  ,                        !- Watts per Person [W/person]
  0,                       !- Fraction Latent
  .2,                      !- Fraction Radiant
  0,                       !- Fraction Lost
  ;                        !- End-Use Subcategory

! ------------------------ LIGHTS
Lights,
  construction0 General lighting,   !- Name
  construction0,                    !- Zone or ZoneList Name
  lightsResidential,          !- Schedule Name
  Watts/Area,              !- Design Level Calculation Method
  ,                        !- Lighting Level [W]
  9.5,         !- Watts per Zone Floor Area [W/m2]
  ,                        !- Watts per Person [W/person]
  0,                       !- Return Air Fraction
  .42,                     !- Fraction Radiant
  .18,                     !- Fraction Visible
  1,                       !- Fraction Replaceable
  ;                        !- End-Use Subcategory


! ------------------------ DAYLIGHT CONTROLS
Daylighting:Controls,
construction0,            !-Zone Name
1,                       !-Total Daylighting Reference Points
8.19805869306954,                  !-X - Coordinate of First Reference Point {m}
18.1042462359997,                  !-Y - Coordinate of First Reference Point {m}
9.85,                      !-Z - Coordinate of First Reference Point {m}
,                        !-X - Coordinate of Second Reference Point {m}
,                        !-Y - Coordinate of Second Reference Point {m}
,                        !-Z - Coordinate of Second Reference Point {m}
1,                       !-Fraction of Zone Controlled by First Reference Point
0,                       !-Fraction of Zone Controlled by Second Reference Point
200,                     !-Illuminance Setpoint at First Reference Point {lux}
200,                     !-Illuminance Setpoint at Second Reference Point {lux}
1 ,                       !-Lighting control type {1=continuous,2=stepped,3=continuous/off}
0,                       !-Glare Calculation Azimuth Angle of View Direction Clockwise from Zone y-Axis {deg}
22,                      !-Maximum Allowable Discomfort Glare Index
0.1,                     !-Minimum Input Power Fraction for Continuous Dimming Control
0.1,                     !-Minimum Light Output Fraction for Continuous Dimming Control
3,                       !-Number of Stepped Control Steps
1;                       !-Probability Lighting will be Reset When Needed in Manual Stepped Control

! ------------------------ HVAC

Schedule:Constant,
  construction0Heating_SP_Sch, !- Name
  Temperature, !- Schedule Type Limits Name
  19; !- Hourly Value

Schedule:Constant,
  construction0Cooling_SP_Sch, !- Name
  Temperature, !- Schedule Type Limits Name
  26; !- Hourly Value

ZoneControl:Thermostat,
  construction0 Thermostat, !- Name
  construction0,            !- Zone or ZoneList Name
  construction0ZoneControlTypeSched, !- Control Type Schedule Name
  ThermostatSetpoint:DualSetpoint,  !- Control 1 Object Type
  Dual Setpoint - Zone construction0;  !- Control 1 Name

Schedule:Constant,
  construction0ZoneControlTypeSched, !- Name
  Any Number, !- Schedule Type Limits Name
  4; !- Hourly Value

ThermostatSetpoint:DualSetpoint,
  Dual Setpoint - Zone construction0,  !- Name
  construction0Heating_SP_Sch,  !- Heating Setpoint Temperature Schedule Name
  construction0Cooling_SP_Sch;  !- Cooling Setpoint Temperature Schedule Name

ZoneHVAC:EquipmentConnections,
  construction0,            !- Zone Name
  construction0 Equipment,  !- Zone Conditioning Equipment List Name
  construction0 Inlets,     !- Zone Air Inlet Node or NodeList Name
  ,                        !- Zone Air Exhaust Node or NodeList Name
  Node construction0 Zone,  !- Zone Air Node Name
  Node construction0 Out;   !- Zone Return Air Node Name

ZoneHVAC:EquipmentList,
  construction0 Equipment,  !- Name
  ZoneHVAC:IdealLoadsAirSystem,  !- Zone Equipment 1 Object Type
  construction0 Ideal Loads Air,  !- Zone Equipment 1 Name
  1,                       !- Zone Equipment 1 Cooling Sequence
  1;                       !- Zone Equipment 1 Heating or No-Load Sequence

NodeList,
  construction0 Inlets,     !- Name
  Node construction0 In;    !- Node 1 Name

ZoneHVAC:IdealLoadsAirSystem,
  construction0 Ideal Loads Air,  !- Name
  ,                        !- Availability Schedule Name
  Node construction0 In,    !- Zone Supply Air Node Name
  ,                        !- Zone Exhaust Air Node Name
  30,                      !- Maximum Heating Supply Air Temperature {C}
  18,                      !- Minimum Cooling Supply Air Temperature {C}
  0.01,                    !- Maximum Heating Supply Air Humidity Ratio {kgWater/kgDryAir}
  0.008,                   !- Minimum Cooling Supply Air Humidity Ratio {kgWater/kgDryAir}
  NoLimit,                 !- Heating Limit
  100,                        !- Maximum Heating Air Flow Rate [m3/s]
  ,        				   !- Maximum Sensible Heating Capacity [W]
  NoLimit,                 !- Cooling Limit
  100 ,                        !- Maximum Cooling Air Flow Rate [m3/s]
  ,                        !- Maximum Total Cooling Capacity [W]
  AllOn,  !- Heating Availability Schedule Name
  AllOn,  !- Cooling Availability Schedule Name
  None,                    !- Dehumidification Control Type
  ,                        !- Cooling Sensible Heat Ratio {dimensionless}
  None,                    !- Humidification Control Type
  construction0MinFreshAir,                        !- Design Specification Outdoor Air Object Name
  construction0_OutDoorInlet,                        !- Outdoor Air Inlet Node Name
  OccupancySchedule,                        !- Demand Controlled Ventilation Type
  NoEconomizer,                        !- Outdoor Air Economizer Type
  Sensible,                        !- Heat Recovery Type
  0.6,                        !- Sensible Heat Recovery Effectiveness {dimensionless}
  0.65;                        !- Latent Heat Recovery Effectiveness {dimensionless}


ZoneControl:Humidistat,
    construction0Humidistat,                  !-Name
    construction0,                   !-Zone Name
    construction0HumidMin,                !-Humidifying Relative Humidity Setpoint Schedule Name
    construction0HumidMax; !-Dehumidifying Relative Humidity Setpoint Schedule Name

Schedule:Constant,
    construction0HumidMin,                !- Name
    Any Number,              !- Schedule Type Limits Name
    20;                      !- Hourly Value

Schedule:Constant,
    construction0HumidMax,                !- Name
    Any Number,              !- Schedule Type Limits Name
    80;                      !- Hourly Value

DesignSpecification:OutdoorAir,
  construction0MinFreshAir,                  !- Name
  Sum,                     !- Outdoor Air Method
  0.008,                 !- Outdoor Air Flow per Person {m3/s-person}
  0.000222222222222222,                   !- Outdoor Air Flow per Zone Floor Area {m3/s-m2}
    ,                        !- Outdoor Air Flow per Zone {m3/s}
    ,                        !- Outdoor Air Flow Air Changes per Hour {1/hr}
    AllOn;!- Outdoor Air Flow Rate Fraction Schedule Name

! ------------------------ AIRFLOW NETWORK
AirflowNetwork:MultiZone:Zone,
    construction0,               !- Zone Name
    , !- Ventilation Control Mode
    , !- Ventilation Control Zone Temperature Setpoint Schedule Name
    , !- Minimum Venting Open Factor {dimensionless}
    , !- Indoor and Outdoor Temperature Difference Lower Limit For Maximum Venting Open Factor {deltaC}
    , !- Indoor and Outdoor Temperature Difference Upper Limit for Minimun Venting Open Factor {deltaC}
    , !- Indoor and Outdoor Enthalpy Difference Lower Limit For Maximum Venting Open Factor {deltaJ/kg}
    , !- Indoor and Outdoor Enthalpy Difference Upper Limit for Minimun Venting Open Factor {deltaJ/kg}
    ;

! ------------------------ DHW
WaterUse:Equipment,
    DHW construction0,        !- Name
    DHW construction0,        !- End-Use Subcategory
    5.92685185185185E-06,           !- Peak Flow Rate [m3/s]
    AllOn,                    !- Flow Rate Fraction Schedule Name
    DHW Supply Temperature construction0,  !- Target Temperature Schedule Name
    DHW Supply Temperature construction0,  !- Hot Water Supply Temperature Schedule Name
    DHW Mains Temperature construction0,  !- Cold Water Supply Temperature Schedule Name
    ,                        !- Zone Name
    ,                        !- Sensible Fraction Schedule Name
    ;                        !- Latent Fraction Schedule Name

Schedule:Constant,
    DHW Supply Temperature construction0, !- Name
    Temperature, !- Schedule Type Limits Name
    60; !- Hourly Value
Schedule:Constant,
    DHW Mains Temperature construction0, !- Name
    Temperature, !- Schedule Type Limits Name
    10; !- Hourly Value
! ------------------------ GEOMETRY


 ! FACE NORMAL  -2.60208521396521E-18 -1 0
BuildingSurface:Detailed,!-Type
construction0:f0, !-Name
Wall,                    !-Surface Type
UVal_0.2_Mass,                       !-Construction Name
construction0,            !-Zone Name
Outdoors,                !-Outside Boundary Condition
,                        !-Outside Boundary Condition Object
SunExposed,              !-Sun Exposure
WindExposed,             !-Wind Exposure
Autocalculate,                      !-View Factor to Ground
4,                       !-Number of Vertices

0.7981, 0.8042, 9.0000,  !- X,Y,Z ==> Vertex
15.5981, 0.8042, 9.0000,  !- X,Y,Z ==> Vertex
15.5981, 0.8042, 14.0000,  !- X,Y,Z ==> Vertex
0.7981, 0.8042, 14.0000;  !- X,Y,Z ==> Vertex


AirflowNetwork:MultiZone:Surface,
    construction0:f0,                 !- Surface Name
    construction0:f0_Crack,           !- Leakage Component Name
    ,            !- External Node Name
    1,           !- Window/Door Opening Factor, or Crack Factor {dimensionless}
    ,            !- Ventilation Control Mode
    ,            !- Ventilation Control Zone Temperature Setpoint Schedule Name
    ,            !- Minimum Venting Open Factor {dimensionless}
    ,            !- Indoor and Outdoor Temperature Difference Lower Limit For Maximum Venting Open Factor {deltaC}
    ,            !- Indoor and Outdoor Temperature Difference Upper Limit for Minimun Venting Open Factor {deltaC}
    ,            !- Indoor and Outdoor Enthalpy Difference Lower Limit For Maximum Venting Open Factor {deltaJ/kg}
    ,            !- Indoor and Outdoor Enthalpy Difference Upper Limit for Minimun Venting Open Factor {deltaJ/kg}
    ;            !- Venting Availability Schedule Name

AirflowNetwork:MultiZone:Surface:Crack,
    construction0:f0_Crack, !- Name of Surface Crack Component
    0.01, !- Air Mass Flow Coefficient at Reference Conditions {kg/s}
    0.667, !- Air Mass Flow Exponent {dimensionless}
    ReferenceCrackConditions; !- Reference Crack Conditions

FenestrationSurface:Detailed,
construction0:f0:w0, !-Name
Window,                  !- Surface Type
SinglePaneClr,                    !- Construction Name
construction0:f0, !- Building Surface Name
,                        !- Outside Boundary Condition Object
Autocalculate,                      !- View Factor to Ground
,                        !- Shading Control Name
,                       !- Frame and Divider Name
1,                       !- Multiplier
4,                       !-Number of Vertices

2.3481, 0.8042, 9.5000,  !- X,Y,Z ==> Vertex
3.4481, 0.8042, 9.5000,  !- X,Y,Z ==> Vertex
3.4481, 0.8042, 11.4000,  !- X,Y,Z ==> Vertex
2.3481, 0.8042, 11.4000;  !- X,Y,Z ==> Vertex

Schedule:Constant,
    AFN_construction0:f0:w0_WindowTemperatureSetpoint, !- Name
    Temperature, !- Schedule Type Limits Name
    20; !- Hourly Value

AirflowNetwork:MultiZone:Surface,
    construction0:f0:w0,                 !- Surface Name
    construction0:f0:w0_OPENING,                 !- Leakage Component Name
    ,                        !- External Node Name
    0.8,                     !- Window/Door Opening Factor, or Crack Factor {dimensionless}
    Temperature,             !- Ventilation Control Mode
    AFN_construction0:f0:w0_WindowTemperatureSetpoint,            !- Ventilation Control Zone Temperature Setpoint Schedule Name
    0.3,                       !- Minimum Venting Open Factor {dimensionless}
    0,                       !- Indoor and Outdoor Temperature Difference Lower Limit For Maximum Venting Open Factor {deltaC}
    100,                     !- Indoor and Outdoor Temperature Difference Upper Limit for Minimun Venting Open Factor {deltaC}
    0,                       !- Indoor and Outdoor Enthalpy Difference Lower Limit For Maximum Venting Open Factor {deltaJ/kg}
    300000,                  !- Indoor and Outdoor Enthalpy Difference Upper Limit for Minimun Venting Open Factor {deltaJ/kg}
    AllOn;         !- Venting Availability Schedule Name

AirflowNetwork:MultiZone:Component:SimpleOpening,
construction0:f0:w0_OPENING, !- Simple Opening Name
0.001, !- Air Mass Flow Coefficient When Opening Is Closed {kg/s-m}
0.650, !- Air Mass Flow Exponent When Opening Is Closed {dimensionless}
0.0001, !- Minimum density difference for two-way flow (kg/m3)
0.65; !- Discharge coefficient (dimensionless)
FenestrationSurface:Detailed,
construction0:f0:w1, !-Name
Window,                  !- Surface Type
SinglePaneClr,                    !- Construction Name
construction0:f0, !- Building Surface Name
,                        !- Outside Boundary Condition Object
Autocalculate,                      !- View Factor to Ground
,                        !- Shading Control Name
,                       !- Frame and Divider Name
1,                       !- Multiplier
4,                       !-Number of Vertices

4.9981, 0.8042, 9.5000,  !- X,Y,Z ==> Vertex
6.0981, 0.8042, 9.5000,  !- X,Y,Z ==> Vertex
6.0981, 0.8042, 11.4000,  !- X,Y,Z ==> Vertex
4.9981, 0.8042, 11.4000;  !- X,Y,Z ==> Vertex

Schedule:Constant,
    AFN_construction0:f0:w1_WindowTemperatureSetpoint, !- Name
    Temperature, !- Schedule Type Limits Name
    20; !- Hourly Value

AirflowNetwork:MultiZone:Surface,
    construction0:f0:w1,                 !- Surface Name